REMARK  6 active torsions:
REMARK  status: ('A' for Active; 'I' for Inactive)
REMARK    1  A    between atoms: N1_1  and  C31_39 
REMARK       I    between atoms: C2_3  and  C3_4 
REMARK       I    between atoms: C3_4  and  N2_6 
REMARK    2  A    between atoms: N2_6  and  C4_7 
REMARK       I    between atoms: N3_11  and  C10_14 
REMARK       I    between atoms: C10_14  and  C11_15 
REMARK    3  A    between atoms: C11_15  and  O2_16 
REMARK       I    between atoms: C11_15  and  C12_17 
REMARK       I    between atoms: C12_17  and  C13_18 
REMARK       I    between atoms: C13_18  and  C14_19 
REMARK       I    between atoms: C13_18  and  C21_26 
REMARK    4  A    between atoms: C14_19  and  C15_20 
REMARK       I    between atoms: C21_26  and  N4_28 
REMARK       I    between atoms: N4_28  and  C22_29 
REMARK    5  A    between atoms: C23_30  and  O4_31 
REMARK    6  A    between atoms: C31_39  and  C32_40 
ROOT
HETATM    1  N1  IND I 201       4.022   6.352  -2.993  1.00 28.25     0.096 N 
HETATM    2  C1  IND I 201       2.703   6.685  -3.597  1.00 30.30     0.307 C 
HETATM    3  C2  IND I 201       1.829   5.615  -4.219  1.00 27.27     0.200 C 
HETATM    4  C3  IND I 201       0.604   6.277  -4.790  1.00 28.85     0.242 C 
HETATM    5  O1  IND I 201       0.697   7.013  -5.765  1.00 29.59    -0.271 OA
HETATM    6  N2  IND I 201      -0.544   6.037  -4.185  1.00 22.29    -0.351 N 
HETATM    7  N3  IND I 201       2.740   5.051  -5.275  1.00 28.91    -0.395 N 
HETATM    8  C8  IND I 201       4.174   4.848  -4.950  1.00 26.24     0.148 C 
HETATM    9  C9  IND I 201       4.827   5.839  -4.010  1.00 27.47     0.292 C 
HETATM   10  C10 IND I 201       2.262   3.915  -6.036  1.00 20.86     0.149 C 
HETATM   11  C11 IND I 201       2.382   4.081  -7.552  1.00 21.68     0.136 C 
HETATM   12  C12 IND I 201       1.327   4.775  -8.432  1.00 21.49     0.047 C 
HETATM   13  C13 IND I 201       1.544   4.924  -9.944  1.00 26.89     0.084 C 
HETATM   14  C14 IND I 201       0.368   5.633 -10.636  1.00 28.67     0.052 C 
HETATM   15  C21 IND I 201       2.832   5.674 -10.266  1.00 29.35     0.222 C 
HETATM   16  O3  IND I 201       3.096   6.744  -9.698  1.00 32.66    -0.273 OA
HETATM   17  N4  IND I 201       3.554   5.165 -11.260  1.00 31.19    -0.350 N 
HETATM   18  C22 IND I 201       4.612   5.930 -11.900  1.00 29.22     0.147 C 
HETATM   19  C23 IND I 201       4.714   5.627 -13.385  1.00 28.82     0.149 C 
HETATM   20  C24 IND I 201       6.131   5.992 -13.768  1.00 32.05     0.073 C 
HETATM   21  C25 IND I 201       7.068   5.772 -12.608  1.00 31.29    -0.047 A 
HETATM   22  C26 IND I 201       8.419   5.594 -12.420  1.00 32.00     0.008 A 
HETATM   23  C27 IND I 201       8.883   5.374 -11.118  1.00 28.00     0.001 A 
HETATM   24  C28 IND I 201       7.994   5.336 -10.033  1.00 29.01     0.001 A 
HETATM   25  C29 IND I 201       6.625   5.503 -10.194  1.00 27.70     0.010 A 
HETATM   26  C30 IND I 201       6.071   5.718 -11.417  1.00 31.86    -0.027 A 
HETATM   27  H4  IND I 201      -0.473   5.457  -3.338  1.00  0.00     0.163 HD
HETATM   28  H32 IND I 201       3.359   4.207 -11.585  1.00  0.00     0.163 HD
ENDROOT
BRANCH  11  29
HETATM   29  O2  IND I 201       2.346   2.714  -7.831  1.00 15.87    -0.394 OA
HETATM   30  H21 IND I 201       2.878   2.202  -7.113  1.00  0.00     0.210 HD
ENDBRANCH  11  29
BRANCH  14  31
HETATM   31  C15 IND I 201       0.578   5.786 -12.098  1.00 26.89    -0.057 A 
HETATM   32  C16 IND I 201       0.808   7.024 -12.699  1.00 29.22     0.007 A 
HETATM   33  C17 IND I 201       0.962   7.125 -14.074  1.00 29.22     0.001 A 
HETATM   34  C18 IND I 201       0.880   5.964 -14.847  1.00 30.97     0.000 A 
HETATM   35  C19 IND I 201       0.657   4.719 -14.247  1.00 29.25     0.001 A 
HETATM   36  C20 IND I 201       0.505   4.634 -12.862  1.00 29.96     0.007 A 
ENDBRANCH  14  31
BRANCH   1  37
HETATM   37  C31 IND I 201       4.660   7.380  -2.162  1.00 36.25     0.312 C 
BRANCH  37  38
HETATM   38  C32 IND I 201       3.829   8.349  -1.313  1.00 42.75    -0.013 A 
HETATM   39  C33 IND I 201       3.996   9.741  -1.357  1.00 47.41     0.125 A 
HETATM   40  N5  IND I 201       3.262  10.690  -0.627  1.00 51.38    -0.273 NA
HETATM   41  C34 IND I 201       2.310  10.066   0.178  1.00 50.60     0.116 A 
HETATM   42  C35 IND I 201       2.092   8.688   0.270  1.00 49.34     0.020 A 
HETATM   43  C36 IND I 201       2.864   7.812  -0.489  1.00 44.71     0.012 A 
ENDBRANCH  37  38
ENDBRANCH   1  37
BRANCH   6  44
HETATM   44  C4  IND I 201      -1.868   6.453  -4.520  1.00 23.47     0.022 C 
HETATM   45  C5  IND I 201      -2.831   5.435  -3.879  1.00 27.66     0.037 C 
HETATM   46  C6  IND I 201      -2.090   6.535  -5.884  1.00 21.71     0.037 C 
HETATM   47  C7  IND I 201      -2.246   7.740  -3.927  1.00 22.75     0.037 C 
ENDBRANCH   6  44
BRANCH  19  48
HETATM   48  O4  IND I 201       4.383   4.269 -13.634  1.00 28.32    -0.393 OA
HETATM   49  H35 IND I 201       3.734   3.934 -12.907  1.00  0.00     0.210 HD
ENDBRANCH  19  48
TORSDOF 14
